%nproc=2
%chk=COX2-EPA
#HF/6-31G* SCF=tight Test Pop=MK iop(6/33=2) iop(6/42=6) opt
# iop(6/50=1)

COX2-EPA charge resp

-1   1
    C   11.4720000000       22.6130000000       25.7500000000     
    O   10.2770000000       22.5120000000       26.0960000000     
    O   12.3870000000       22.7550000000       26.5870000000     
    C   11.8340000000       22.5840000000       24.2800000000     
    C   12.0530000000       23.9430000000       23.6850000000     
    C   13.3590000000       24.5730000000       24.1530000000     
    C   14.2030000000       24.9530000000       22.9590000000     
    C   15.5360000000       24.9170000000       22.9760000000     
    C   16.3390000000       24.5040000000       24.1890000000     
    C   17.7560000000       25.0170000000       24.0240000000     
    C   18.4020000000       25.8030000000       24.9000000000     
    C   17.8320000000       26.3070000000       26.2120000000     
    C   16.7590000000       27.3340000000       25.9250000000     
    C   16.5510000000       28.4110000000       26.6770000000     
    C   17.3700000000       28.7180000000       27.9050000000     
    C   16.3620000000       29.0740000000       28.9520000000     
    C   16.6690000000       29.1940000000       30.2310000000     
    C   18.0560000000       28.9940000000       30.7850000000     
    C   17.8550000000       28.8250000000       32.2810000000     
    C   18.8270000000       28.7110000000       33.1740000000     
    C   20.3120000000       28.7320000000       32.8700000000     
    C   21.0220000000       29.3480000000       34.0400000000     
    H   12.7779000000       22.0835000000       24.2212000000     
    H   10.9812000000       22.1785000000       23.7768000000     
    H   11.2691000000       24.5647000000       24.0644000000     
    H   12.1547000000       23.7941000000       22.6303000000     
    H   13.8961000000       23.8118000000       24.6793000000     
    H   13.0999000000       25.4850000000       24.6489000000     
    H   13.7103000000       25.2642000000       22.0616000000     
    H   16.0635000000       25.1941000000       22.0873000000     
    H   15.9181000000       25.0131000000       25.0308000000     
    H   16.3904000000       23.4353000000       24.1810000000     
    H   18.2835000000       24.7296000000       23.1385000000     
    H   19.4003000000       26.0979000000       24.6524000000     
    H   18.6238000000       26.8189000000       26.7178000000     
    H   17.3480000000       25.4752000000       26.6797000000     
    H   16.1330000000       27.1858000000       25.0700000000     
    H   15.7701000000       29.0876000000       26.3990000000     
    H   17.8533000000       27.8135000000       28.2104000000     
    H   17.9516000000       29.5925000000       27.7001000000     
    H   15.3483000000       29.2385000000       28.6515000000     
    H   15.8861000000       29.4484000000       30.9146000000     
    H   18.6035000000       29.9000000000       30.6294000000     
    H   18.4314000000       28.0691000000       30.3995000000     
    H   16.8483000000       28.7957000000       32.6424000000     
    H   18.5391000000       28.5940000000       34.1979000000     
    H   20.6340000000       27.7134000000       32.8086000000     
    H   20.4523000000       29.3886000000       32.0369000000     
    H   20.3075000000       29.6160000000       34.7900000000     
    H   21.7180000000       28.6439000000       34.4459000000     
    H   21.5467000000       30.2233000000       33.7183000000     

EPA_gaussian.gesp

EPA_gaussia.gesp


